Circuit: * E:\EDL\LAB3\lab3_b_adding_speedCircuit.asc

WARNING: Node X2:N002 is floating.

WARNING: Less than two connections to node REF.  This node is used by R3.
Direct Newton iteration failed to find .op point.  (Use ".option noopiter" to skip.)
Starting Gmin stepping
Gmin = 10
Gmin = 1.07374
Gmin = 0.115292
Gmin = 0.0123794
Gmin = 0.00132923
Gmin = 0.000142725
Gmin = 1.5325e-005
Gmin = 1.6455e-006
Gmin = 1.76685e-007
Gmin = 1.89714e-008
Gmin = 2.03704e-009
Gmin = 2.18725e-010
Gmin = 2.34854e-011
Gmin = 2.52173e-012
Gmin = 2.70769e-013
Gmin = 0
Gmin stepping succeeded in finding the operating point.


Date: Thu Mar 08 10:36:37 2018
Total elapsed time: 0.287 seconds.

tnom = 27
temp = 27
method = modified trap
totiter = 2968
traniter = 2601
tranpoints = 1179
accept = 1156
rejected = 23
matrix size = 66
fillins = 40
solver = Normal
Thread vector: 10.3/7.9[2] 4.6/4.5[1] 2.6/3.5[1] 0.4/0.8[1]  2592/500
Matrix Compiler1: 6.23 KB object code size  2.0/1.0/[0.6]
Matrix Compiler2: 5.90 KB object code size  1.3/1.2/[0.6]

