Circuit: * E:\EDL\LAB3\lab3_b_combining_Speed_H_bridge.asc

WARNING: Node X2:N002 is floating.

Direct Newton iteration for .op point succeeded.

Date: Fri Mar 09 15:52:56 2018
Total elapsed time: 2.792 seconds.

tnom = 27
temp = 27
method = modified trap
totiter = 64162
traniter = 64146
tranpoints = 19328
accept = 15053
rejected = 4275
matrix size = 44
fillins = 17
solver = Normal
Matrix Compiler1: 3.22 KB object code size  1.1/0.4/[0.3]
Matrix Compiler2: 3.58 KB object code size  0.5/0.5/[0.4]

