Circuit: * E:\EDL\LAB3\lab3_b_combining_Speed_H_bridge.asc

WARNING: Node X2:N002 is floating.

Direct Newton iteration for .op point succeeded.

Date: Thu Mar 08 10:33:17 2018
Total elapsed time: 2.864 seconds.

tnom = 27
temp = 27
method = modified trap
totiter = 67710
traniter = 67694
tranpoints = 20597
accept = 15718
rejected = 4879
matrix size = 44
fillins = 17
solver = Normal
Matrix Compiler1: 3.22 KB object code size  1.3/0.6/[0.3]
Matrix Compiler2: 3.58 KB object code size  0.5/0.7/[0.4]

