Circuit: * E:\EDL\LAB3\lab3_b_adding_speedCircuit.asc

WARNING: Node X2:N002 is floating.

Direct Newton iteration failed to find .op point.  (Use ".option noopiter" to skip.)
Starting Gmin stepping
Gmin = 10
Gmin = 1.07374
Gmin = 0.115292
Gmin = 0.0123794
Gmin = 0.00132923
Gmin = 0.000142725
Gmin = 1.5325e-005
Gmin = 1.6455e-006
Gmin = 1.76685e-007
Gmin = 1.89714e-008
Gmin = 2.03704e-009
Gmin = 2.18725e-010
Gmin = 2.34854e-011
Gmin = 2.52173e-012
Gmin = 2.70769e-013
Gmin = 0
Gmin stepping succeeded in finding the operating point.

Heightened Def Con from 0.0373442 to 0.0373442
Heightened Def Con from 0.0389927 to 0.0389927
Heightened Def Con from 0.0543411 to 0.0543411
Heightened Def Con from 0.0602864 to 0.0602864
Heightened Def Con from 0.0623881 to 0.0623881
Heightened Def Con from 0.072133 to 0.072133
Heightened Def Con from 0.0731439 to 0.0731439
Heightened Def Con from 0.0756632 to 0.0756632
Heightened Def Con from 0.0816752 to 0.0816752
Heightened Def Con from 0.09858 to 0.09858
Heightened Def Con from 0.105519 to 0.105519
Heightened Def Con from 0.11493 to 0.11493
Heightened Def Con from 0.121368 to 0.121368
Heightened Def Con from 0.128303 to 0.128303
Heightened Def Con from 0.129294 to 0.129294
Heightened Def Con from 0.130285 to 0.130285
Heightened Def Con from 0.140198 to 0.140198
Heightened Def Con from 0.149624 to 0.149625
Heightened Def Con from 0.150121 to 0.150121
Heightened Def Con from 0.158066 to 0.158066
Heightened Def Con from 0.159059 to 0.159059
Heightened Def Con from 0.163034 to 0.163034
Heightened Def Con from 0.168004 to 0.168004
Heightened Def Con from 0.172976 to 0.172976
Heightened Def Con from 0.17596 to 0.17596
Heightened Def Con from 0.176955 to 0.176955
Heightened Def Con from 0.20283 to 0.20283
Heightened Def Con from 0.203826 to 0.203826
Heightened Def Con from 0.210297 to 0.210297
Heightened Def Con from 0.213284 to 0.213284
Heightened Def Con from 0.217764 to 0.217764
Heightened Def Con from 0.221747 to 0.221747
Heightened Def Con from 0.226726 to 0.226726
Heightened Def Con from 0.230211 to 0.230211
Heightened Def Con from 0.233696 to 0.233696
Heightened Def Con from 0.241662 to 0.241662
Heightened Def Con from 0.247637 to 0.247637
Heightened Def Con from 0.252617 to 0.252617
Heightened Def Con from 0.256609 to 0.256609
Heightened Def Con from 0.263648 to 0.263648
Heightened Def Con from 0.264664 to 0.264664
Heightened Def Con from 0.266706 to 0.266706
Heightened Def Con from 0.267732 to 0.267732
Heightened Def Con from 0.268763 to 0.268763
Heightened Def Con from 0.269799 to 0.269799
Heightened Def Con from 0.274524 to 0.274524
Heightened Def Con from 0.277203 to 0.277203
Heightened Def Con from 0.278286 to 0.278286
Heightened Def Con from 0.283257 to 0.283257
Heightened Def Con from 0.287244 to 0.287244
Heightened Def Con from 0.290759 to 0.290759
Heightened Def Con from 0.29684 to 0.29684

Date: Fri Mar 09 16:20:22 2018
Total elapsed time: 23.060 seconds.

tnom = 27
temp = 27
method = modified trap
totiter = 516366
traniter = 515999
tranpoints = 140129
accept = 107227
rejected = 32954
matrix size = 63
fillins = 27
solver = Normal
Thread vector: 13.4/11.9[2] 4.9/3.7[2] 1.7/2.1[1] 0.5/5.2[1]  2592/500
Matrix Compiler1: 4.84 KB object code size  1.7/0.9/[0.6]
Matrix Compiler2: 5.54 KB object code size  1.0/1.6/[0.8]

