Circuit: * E:\EDL\LAB3\lab3_a_schematic.asc

WARNING: Node X2:N002 is floating.

WARNING: Less than two connections to node ENC.  This node is used by R:X2:1.
Direct Newton iteration for .op point succeeded.

Date: Wed Mar 07 08:40:56 2018
Total elapsed time: 0.222 seconds.

tnom = 27
temp = 27
method = modified trap
totiter = 13436
traniter = 13431
tranpoints = 4209
accept = 3298
rejected = 911
matrix size = 23
fillins = 2
solver = Normal
Matrix Compiler1: 1.21 KB object code size  0.6/0.2/[0.2]
Matrix Compiler2: 1.70 KB object code size  0.2/0.3/[0.2]

