Circuit: * E:\EDL\LAB3\lab3_a_CurrentLimit_base_R.asc

WARNING: Node X2:N002 is floating.

Direct Newton iteration for .op point succeeded.

Date: Thu Mar 08 09:57:06 2018
Total elapsed time: 2.638 seconds.

tnom = 27
temp = 27
method = modified trap
totiter = 64590
traniter = 64574
tranpoints = 19182
accept = 14817
rejected = 4365
matrix size = 44
fillins = 17
solver = Normal
Matrix Compiler1: 3.22 KB object code size  1.2/0.5/[0.3]
Matrix Compiler2: 3.58 KB object code size  0.4/0.5/[0.4]

