Circuit: * E:\EDL\LAB3\lab3_a_CurrentLimit_base_R.asc

.OP point found by inspection.

Date: Wed Mar 07 08:45:47 2018
Total elapsed time: 0.080 seconds.

tnom = 27
temp = 27
method = modified trap
totiter = 2234
traniter = 2234
tranpoints = 1107
accept = 1098
rejected = 9
matrix size = 15
fillins = 6
solver = Normal
Matrix Compiler1: 1.62 KB object code size  0.5/0.3/[0.1]
Matrix Compiler2: 1.42 KB object code size  0.2/0.2/[0.1]

