Circuit: * E:\EDL\LAB3\my_schematic.asc

WARNING: Node X2:N002 is floating.

WARNING: Less than two connections to node ENC.  This node is used by R:X2:1.
Direct Newton iteration for .op point succeeded.

Date: Wed Mar 07 08:22:36 2018
Total elapsed time: 0.357 seconds.

tnom = 27
temp = 27
method = modified trap
totiter = 20339
traniter = 20333
tranpoints = 6109
accept = 4661
rejected = 1448
matrix size = 25
fillins = 6
solver = Normal
Matrix Compiler1: 1.94 KB object code size  0.8/0.3/[0.2]
Matrix Compiler2: 2.03 KB object code size  0.3/0.3/[0.2]

